%chk=h2h3b3l.chk
# opt freq B3LYP/6-31g**

b3Llyp

1 1
 O                  0.90643278    1.37426899    0.00000000
 H                  1.86643278    1.37426899    0.00000000
 H                  0.58597820    2.27920482    0.00000000
 O                 -0.46783628   -0.73099414    0.00000000
 H                 -1.34140063   -1.51642458   -0.96093327
 H                 -1.17648996   -1.34969330    2.06713779
 H                  0.33620803    0.49531886   -0.03650588

 1 2 1.0 3 1.0
 2
 3
 4 6 1.0 5 1.0
 5
 6
 7

