%chk=h2h3.chk
# opt freq hf/6-31g** geom=connectivity

h30+

1 1
 O                  1.23873874    1.80180177    0.00000000
 H                  2.19873874    1.80180177    0.00000000
 H                  0.91828416    2.70673761    0.00000000
 O                 -0.92342343   -0.36036035    0.00000000
 H                 -2.01078278   -0.60115837    1.57389086
 H                 -1.64814014   -1.20197154   -1.38618339
 H                  0.19404422    0.75470990   -0.11403694

 1 2 1.0 3 1.0
 2
 3
 4 6 1.0 5 1.0
 5
 6
 7

