%chk=h3.chk
# opt=(tight) freq hf/6-31g** geom=connectivity

h3

1 1
 O                  3.85135137   -1.12612611    0.00000000
 H                  4.67316437   -1.17506069   -0.49379023
 H                  3.53089678   -0.22119028    0.00000000
 H                  2.89286290   -2.65648152   -0.92095096

 1 2 1.0 3 1.0 4 1.0
 2
 3
 4

