%chk=h3_b3l.chk
# opt freq B3LYP/6-31g** geom=connectivity

Title Card Required

1 1
 O                  0.41315083   -0.20478845   -0.08086421
 H                  0.00000000   -0.78445490    0.56319319
 H                 -1.20201447    0.18864662    0.29916176
 H                  0.00000000    0.00000000   -1.20699270

 1 2 1.0 3 1.0 4 1.0
 2
 3
 4

